@<TRIPOS>MOLECULE
MOL
   60    63     1     0     0
SMALL
No Charge or Current Charge


@<TRIPOS>ATOM
      1 O1          41.0390    17.1880    11.2420 O.co2      1 MOL      -0.849800
      2 C1          40.7350    17.5140    12.4210 C.2        1 MOL       0.918600
      3 O2          40.3730    18.8060    12.7150 O.co2      1 MOL      -0.849800
      4 C2          40.7750    16.5290    13.5100 C.3        1 MOL       0.005400
      5 O3          42.0560    15.9530    13.5300 O.3        1 MOL      -0.286900
      6 C3          42.3580    15.0380    14.5080 C.2        1 MOL       0.140100
      7 C4          43.2560    15.3230    15.5090 C.2        1 MOL      -0.173700
      8 C5          43.9170    16.5970    15.7770 C.2        1 MOL       0.939200
      9 O4          43.6490    17.6520    15.1390 O.co2      1 MOL      -0.816300
     10 O5          44.8560    16.6210    16.7800 O.co2      1 MOL      -0.816300
     11 S1          43.3570    13.9800    16.5150 S.3        1 MOL       0.042200
     12 C6          42.2420    13.0200    15.6830 C.2        1 MOL      -0.165100
     13 C7          41.9300    11.6240    16.0620 C.ar       1 MOL       0.079000
     14 C8          42.9440    10.8380    16.6380 C.ar       1 MOL      -0.148000
     15 C9          42.7070     9.5030    16.9870 C.ar       1 MOL      -0.125000
     16 C10         41.4390     8.9450    16.7730 C.ar       1 MOL      -0.173000
     17 C11         40.4090     9.7360    16.2260 C.ar       1 MOL       0.080600
     18 N1          39.1030     9.2230    15.9920 N.3        1 MOL      -0.697600
     19 C12         38.7490     8.3570    14.8850 C.3        1 MOL       0.186500
     20 C13         39.9870     7.5520    14.5350 C.3        1 MOL      -0.116900
     21 C14         39.7100     6.5610    13.4190 C.3        1 MOL       0.221800
     22 N2          38.4810     5.7850    13.6150 N.3        1 MOL      -0.818500
     23 S2          38.7130     4.0940    13.8510 S.o2       1 MOL       1.435900
     24 O6          37.4190     3.3430    13.9360 O.2        1 MOL      -0.652300
     25 O7          39.6600     3.5100    12.8450 O.2        1 MOL      -0.652300
     26 C15         39.5000     3.9300    15.4460 C.3        1 MOL      -0.255300
     27 C16         39.9400     2.5260    15.6860 C.ar       1 MOL      -0.058300
     28 C17         39.0350     1.5830    16.1850 C.ar       1 MOL      -0.113500
     29 C18         39.4440     0.2630    16.3960 C.ar       1 MOL      -0.129500
     30 C19         40.7580    -0.1160    16.1070 C.ar       1 MOL      -0.129000
     31 C20         41.6630     0.8240    15.6050 C.ar       1 MOL      -0.129500
     32 C21         41.2550     2.1440    15.3930 C.ar       1 MOL      -0.113500
     33 C22         37.3100     6.3810    14.2700 C.3        1 MOL       0.221800
     34 C23         37.6610     7.3970    15.3460 C.3        1 MOL      -0.116900
     35 C24         40.6560    11.0680    15.8760 C.ar       1 MOL      -0.160000
     36 C25         41.7800    13.7560    14.5860 C.2        1 MOL      -0.045900
     37 Br1         40.5550    13.0980    13.2690 Br         1 MOL      -0.108100
     38 H1          40.5750    17.0280    14.4700 H          1 MOL       0.054200
     39 H2          40.0100    15.7550    13.3510 H          1 MOL       0.054200
     40 H3          43.9360    11.2780    16.8160 H          1 MOL       0.143000
     41 H4          43.5120     8.8950    17.4260 H          1 MOL       0.113000
     42 H5          41.2480     7.8930    17.0310 H          1 MOL       0.115000
     43 H6          38.3580     9.4830    16.6540 H          1 MOL       0.371800
     44 H7          38.3940     8.9390    14.0210 H          1 MOL       0.062700
     45 H8          40.7820     8.2400    14.2130 H          1 MOL       0.060200
     46 H9          40.2940     6.9880    15.4280 H          1 MOL       0.060200
     47 H10         39.6240     7.1170    12.4730 H          1 MOL       0.055700
     48 H11         40.5460     5.8450    13.4070 H          1 MOL       0.055700
     49 H12         40.3770     4.5930    15.4830 H          1 MOL       0.115700
     50 H13         38.7730     4.2060    16.2240 H          1 MOL       0.115700
     51 H14         38.0000     1.8810    16.4110 H          1 MOL       0.144500
     52 H15         38.7320    -0.4770    16.7900 H          1 MOL       0.129000
     53 H16         41.0800    -1.1550    16.2740 H          1 MOL       0.125000
     54 H17         42.6970     0.5250    15.3770 H          1 MOL       0.129000
     55 H18         41.9670     2.8830    14.9970 H          1 MOL       0.144500
     56 H19         36.7020     6.8830    13.5030 H          1 MOL       0.055700
     57 H20         36.7680     5.5620    14.7650 H          1 MOL       0.055700
     58 H21         36.7600     7.9750    15.5980 H          1 MOL       0.060200
     59 H22         38.0380     6.8500    16.2230 H          1 MOL       0.060200
     60 H23         39.8470    11.6810    15.4530 H          1 MOL       0.149000
@<TRIPOS>BOND
     1     1     2 1   
     2     2     3 1   
     3     2     4 1   
     4     4     5 1   
     5     5     6 1   
     6     6     7 2   
     7     7     8 1   
     8     8     9 1   
     9     8    10 1   
    10     7    11 1   
    11    11    12 1   
    12    12    13 1   
    13    13    14 ar  
    14    14    15 ar  
    15    15    16 ar  
    16    16    17 ar  
    17    17    18 1   
    18    18    19 1   
    19    19    20 1   
    20    20    21 1   
    21    21    22 1   
    22    22    23 1   
    23    23    24 2   
    24    23    25 2   
    25    23    26 1   
    26    26    27 1   
    27    27    28 ar  
    28    28    29 ar  
    29    29    30 ar  
    30    30    31 ar  
    31    31    32 ar  
    32    22    33 1   
    33    33    34 1   
    34    17    35 ar  
    35    12    36 2   
    36    36    37 1   
    37    36     6 1   
    38    35    13 ar  
    39    34    19 1   
    40    32    27 ar  
    41     4    38 1   
    42     4    39 1   
    43    14    40 1   
    44    15    41 1   
    45    16    42 1   
    46    18    43 1   
    47    19    44 1   
    48    20    45 1   
    49    20    46 1   
    50    21    47 1   
    51    21    48 1   
    52    26    49 1   
    53    26    50 1   
    54    28    51 1   
    55    29    52 1   
    56    30    53 1   
    57    31    54 1   
    58    32    55 1   
    59    33    56 1   
    60    33    57 1   
    61    34    58 1   
    62    34    59 1   
    63    35    60 1   
@<TRIPOS>SUBSTRUCTURE
     1 MOL         1 TEMP              0 ****  ****    0 ROOT
