@<TRIPOS>MOLECULE
MOL
   60    63     1     0     0
SMALL
No Charge or Current Charge


@<TRIPOS>ATOM
      1 O1          39.0440    17.6030    12.2960 O.co2      1 MOL      -0.841800
      2 C1          40.1960    17.0990    12.3640 C.2        1 MOL       0.926600
      3 O2          41.2370    17.6400    11.6480 O.co2      1 MOL      -0.841800
      4 C2          40.4550    15.9160    13.1970 C.3        1 MOL      -0.002600
      5 O3          41.6450    16.1350    13.9110 O.3        1 MOL      -0.262900
      6 C3          42.1640    15.1170    14.6720 C.2        1 MOL       0.077100
      7 C4          41.5120    13.8820    14.8680 C.2        1 MOL      -0.187000
      8 C5          42.2490    13.0260    15.6880 C.2        1 MOL      -0.168100
      9 C6          41.9330    11.6310    16.0620 C.ar       1 MOL       0.084000
     10 C7          42.9440    10.8420    16.6400 C.ar       1 MOL      -0.170000
     11 C8          42.7060     9.5070    16.9880 C.ar       1 MOL      -0.115000
     12 C9          41.4380     8.9530    16.7730 C.ar       1 MOL      -0.199000
     13 C10         40.4100     9.7450    16.2210 C.ar       1 MOL       0.121600
     14 N1          39.1050     9.2290    15.9870 N.3        1 MOL      -0.722600
     15 C11         38.7770     8.3260    14.9030 C.3        1 MOL       0.203500
     16 C12         40.0500     7.5570    14.5390 C.3        1 MOL      -0.105400
     17 C13         39.7290     6.4100    13.5930 C.3        1 MOL       0.234300
     18 N2          38.7490     5.5560    14.2530 N.3        1 MOL      -0.802500
     19 S1          38.6060     4.0270    13.4570 S.o2       1 MOL       1.427900
     20 O4          38.6760     4.2540    11.9710 O.2        1 MOL      -0.677800
     21 O5          37.2700     3.4360    13.8140 O.2        1 MOL      -0.677800
     22 C14         39.8770     2.8750    13.9700 C.3        1 MOL      -0.298300
     23 C15         39.7880     2.5460    15.4210 C.ar       1 MOL      -0.063300
     24 C16         40.0790     3.5150    16.3880 C.ar       1 MOL      -0.141500
     25 C17         39.9920     3.1970    17.7470 C.ar       1 MOL      -0.137000
     26 C18         39.6160     1.9090    18.1410 C.ar       1 MOL      -0.142000
     27 C19         39.3310     0.9380    17.1770 C.ar       1 MOL      -0.137000
     28 C20         39.4180     1.2560    15.8180 C.ar       1 MOL      -0.141500
     29 C21         37.4660     6.2420    14.3800 C.3        1 MOL       0.234300
     30 C22         37.6480     7.3890    15.3630 C.3        1 MOL      -0.105400
     31 C23         40.6590    11.0760    15.8660 C.ar       1 MOL      -0.183000
     32 S2          43.6730    13.8120    16.1400 S.3        1 MOL       0.007200
     33 C24         43.3740    15.2430    15.3140 C.2        1 MOL      -0.114700
     34 C25         44.2120    16.4340    15.4150 C.2        1 MOL       0.947200
     35 O6          45.3880    16.4050    15.8710 O.co2      1 MOL      -0.821300
     36 O7          43.6750    17.6200    14.9740 O.co2      1 MOL      -0.821300
     37 H1          39.6220    15.7640    13.8980 H          1 MOL       0.011200
     38 H2          40.5500    15.0200    12.5650 H          1 MOL       0.011200
     39 H3          40.5380    13.6240    14.4270 H          1 MOL       0.140000
     40 H4          43.9370    11.2800    16.8200 H          1 MOL       0.132000
     41 H5          43.5100     8.8980    17.4270 H          1 MOL       0.107000
     42 H6          41.2440     7.9020    17.0330 H          1 MOL       0.112000
     43 H7          38.3490     9.5140    16.6250 H          1 MOL       0.371800
     44 H8          38.4210     8.8640    14.0120 H          1 MOL       0.035700
     45 H9          40.7590     8.2410    14.0510 H          1 MOL       0.061700
     46 H10         40.4910     7.1450    15.4590 H          1 MOL       0.061700
     47 H11         39.3120     6.8040    12.6550 H          1 MOL       0.043450
     48 H12         40.6390     5.8410    13.3530 H          1 MOL       0.043450
     49 H13         39.7700     1.9470    13.3890 H          1 MOL       0.172200
     50 H14         40.8540     3.3490    13.7910 H          1 MOL       0.172200
     51 H15         40.3770     4.5280    16.0780 H          1 MOL       0.168000
     52 H16         40.2180     3.9610    18.5060 H          1 MOL       0.158000
     53 H17         39.5460     1.6600    19.2100 H          1 MOL       0.121000
     54 H18         39.0370    -0.0750    17.4870 H          1 MOL       0.158000
     55 H19         39.1960     0.4900    15.0600 H          1 MOL       0.168000
     56 H20         37.1530     6.6340    13.4010 H          1 MOL       0.043450
     57 H21         36.6930     5.5470    14.7390 H          1 MOL       0.043450
     58 H22         36.7090     7.9600    15.4280 H          1 MOL       0.061700
     59 H23         37.9120     6.9740    16.3460 H          1 MOL       0.061700
     60 H24         39.8550    11.6880    15.4310 H          1 MOL       0.156000
@<TRIPOS>BOND
     1     1     2 1   
     2     2     3 1   
     3     2     4 1   
     4     4     5 1   
     5     5     6 1   
     6     6     7 1   
     7     7     8 2   
     8     8     9 1   
     9     9    10 ar  
    10    10    11 ar  
    11    11    12 ar  
    12    12    13 ar  
    13    13    14 1   
    14    14    15 1   
    15    15    16 1   
    16    16    17 1   
    17    17    18 1   
    18    18    19 1   
    19    19    20 2   
    20    19    21 2   
    21    19    22 1   
    22    22    23 1   
    23    23    24 ar  
    24    24    25 ar  
    25    25    26 ar  
    26    26    27 ar  
    27    27    28 ar  
    28    18    29 1   
    29    29    30 1   
    30    13    31 ar  
    31     8    32 1   
    32    32    33 1   
    33    33    34 1   
    34    34    35 1   
    35    34    36 1   
    36    33     6 2   
    37    31     9 ar  
    38    30    15 1   
    39    28    23 ar  
    40     4    37 1   
    41     4    38 1   
    42     7    39 1   
    43    10    40 1   
    44    11    41 1   
    45    12    42 1   
    46    14    43 1   
    47    15    44 1   
    48    16    45 1   
    49    16    46 1   
    50    17    47 1   
    51    17    48 1   
    52    22    49 1   
    53    22    50 1   
    54    24    51 1   
    55    25    52 1   
    56    26    53 1   
    57    27    54 1   
    58    28    55 1   
    59    29    56 1   
    60    29    57 1   
    61    30    58 1   
    62    30    59 1   
    63    31    60 1   
@<TRIPOS>SUBSTRUCTURE
     1 MOL         1 TEMP              0 ****  ****    0 ROOT
